6
Coordinates from ORCA-job opt E -13.771865494017
  C          -0.64416142676103      0.02208845322931      0.14519875108338
  C           0.64434880016020     -0.02155679583728     -0.14513940352259
  H          -1.26196245522139     -0.86656697486287      0.11574784072424
  H          -1.13168720285974      0.94782087421285      0.42362054596236
  H           1.13036259888389     -0.94815549275849     -0.42339317483758
  H           1.26310068579807      0.86637093601648     -0.11603355940980
