15
Coordinates from ORCA-job scan E -49.858367604787
  C           2.42668201460383     -0.13525262796235     -0.51929185823303
  C           0.99907161380993     -0.47525698923646     -0.39022007073511
  C           0.08722996538249      0.85519079201267     -0.14967529930299
  C          -1.33712632904461      0.57241960826929      0.21963230593291
  C          -2.03444555287457     -0.67508158567459     -0.05830363300776
  O          -1.57479446272090     -0.37189624983785      1.24521059091855
  H           3.02655706721820      0.06099476312072      0.35874661399266
  H           2.86943381434795      0.06250079514443     -1.48537735246533
  H           0.63593515452052     -0.97045747316235     -1.28997069420921
  H           0.82335409852660     -1.13137742322965      0.46262417688097
  H           0.11178894085842      1.46458102773886     -1.05342098684140
  H           0.54631046897400      1.43887590482526      0.64899642939136
  H          -1.95284191028366      1.46415456631724      0.31290168974936
  H          -1.51507399946687     -1.48900513252559     -0.54954205867828
  H          -3.11208188385133     -0.67039097579964     -0.17930785339268
