15
Coordinates from ORCA-job scan E -49.844991829195
  C           2.45213149049349     -0.16004699748852     -0.50838634945148
  C           1.04410326135634     -0.53253995926821     -0.41145271386401
  C           0.04521972500657      0.90607343882980     -0.16085206839945
  C          -1.36154573008587      0.59192859323934      0.22967712316103
  C          -2.03758020323899     -0.66736964865644     -0.04618818883054
  O          -1.56560428906573     -0.36259867364233      1.25252380293053
  H           3.04318858698400     -0.00207908670086      0.38295067744178
  H           2.89525865504532      0.10385174634547     -1.45830911662236
  H           0.67247637374433     -0.99443908759420     -1.32340321940012
  H           0.82874324109914     -1.16626978219824      0.44629711146449
  H           0.07002167967510      1.47881285027751     -1.08631089468325
  H           0.53270991950712      1.48403955413329      0.62252701687817
  H          -1.99481590076115      1.47044712650545      0.33706692971681
  H          -1.50760030844105     -1.46575523527819     -0.55138624600164
  H          -3.11670750131862     -0.68405583850388     -0.15175186433997
