15
Coordinates from ORCA-job scan E -49.861224313053
  C           2.41129498455413     -0.07418327334524     -0.56408423082022
  C           0.97910534738617     -0.41514848040518     -0.44396473209195
  C           0.09075162491377      0.85219161717104     -0.10384320907121
  C          -1.32815783485969      0.54903856495624      0.27366512801938
  C          -2.03753172603964     -0.67030803898324     -0.08662168766434
  O          -1.55067575325552     -0.47196732046179      1.22717627129159
  H           2.86238778534389      0.64458191088711      0.10696229771386
  H           3.06679383683740     -0.64151049626137     -1.20910474750539
  H           0.62256684700268     -0.87723694949394     -1.36520010616613
  H           0.82274366942510     -1.14783045007381      0.35713936676051
  H           0.09087334873877      1.53092550067144     -0.95780193583686
  H           0.55692270716819      1.38679553091566      0.72608663700755
  H          -1.93732080382379      1.43262176809511      0.44824184488689
  H          -1.53245659701959     -1.44548476407967     -0.65037736635633
  H          -3.11729843637188     -0.65248611959239     -0.18527153016735
