15
Coordinates from ORCA-job scan E -49.828872874709
  C           2.47328729486021     -0.18685632824932     -0.49836446524910
  C           1.09165586437090     -0.58827940644140     -0.43360102063917
  C           0.00413215532434      0.95669043032806     -0.16968753496254
  C          -1.38472898931335      0.61050536548991      0.23993777517286
  C          -2.03828806314277     -0.66045355115915     -0.03559661670392
  O          -1.55514206980503     -0.35460565601556      1.25869686594450
  H           3.05057964262258     -0.04608306465297      0.40471116826102
  H           2.92146107168402      0.11890334800478     -1.43331276027531
  H           0.70697654425007     -1.01053488728258     -1.35741996097760
  H           0.83313605820310     -1.19532523669839      0.42917972086361
  H           0.02921717290044      1.49709429589539     -1.11289979351906
  H           0.51875290248140      1.52522886721794      0.60111989566480
  H          -2.03545683811619      1.47520357945490      0.36203205413737
  H          -1.49743987013874     -1.44193436704218     -0.55535739229263
  H          -3.11814387618100     -0.69955438884946     -0.12643593542481
