15
Coordinates from ORCA-job scan E -49.854593040959
  C           2.43503639343237     -0.14399131303258     -0.51636668059648
  C           1.01338705076288     -0.49476889071926     -0.39808032279558
  C           0.07361396899020      0.87215908580457     -0.15230509560864
  C          -1.34529816457559      0.57895181951406      0.22277081066077
  C          -2.03535724720498     -0.67266776871459     -0.05413823964986
  O          -1.57250309259463     -0.36819073210833      1.24792095835525
  H           3.02957726731970      0.04606829992884      0.36657839792640
  H           2.87935150500699      0.07232756873104     -1.47772683101562
  H           0.64763898269387     -0.97889922895438     -1.30201249562210
  H           0.82511899589862     -1.14394078487245      0.45642060782412
  H           0.09926356639900      1.47104940587143     -1.06227700010232
  H           0.54236544057483      1.45213639732104      0.64253475036031
  H          -1.96669437522289      1.46661685950679      0.31971031313304
  H          -1.51201656649153     -1.48161159116198     -0.54931697858032
  H          -3.11348472498886     -0.67524012711422     -0.17071019428897
