15
Coordinates from ORCA-job trans E -49.806281270713
  C           2.51879560336302     -0.26974924208142     -0.47591116431752
  C           1.24362816044183     -0.71045907581458     -0.47494086492735
  C          -0.11551997654755      1.09302600787527     -0.18913085806895
  C          -1.44364035235411      0.64686596865655      0.27449516085514
  C          -2.03157851387145     -0.65116753582819     -0.02825183319733
  O          -1.50525055499400     -0.37401048065701      1.25477664467764
  H           3.06908482190565     -0.14167229443376      0.44687270917946
  H           3.01391628635287      0.02598117564775     -1.39127035451719
  H           0.75769438432125     -0.94849563801545     -1.41175125887822
  H           0.80247751998113     -1.12321965372331      0.42255600809542
  H          -0.07101733565187      1.51086336190274     -1.18752690366739
  H           0.48979668729525      1.61158649081286      0.54365776519199
  H          -2.14796493392732      1.45655189894372      0.47135827365083
  H          -1.47028664855461     -1.37185304829933     -0.61086880747851
  H          -3.11013614776008     -0.75424793498586     -0.07106251659799
