15
Coordinates from ORCA-job trans E -49.806282131883
  C           2.51818944222389     -0.26961322241271     -0.47615161795444
  C           1.24325840989667     -0.71074733833741     -0.47474288648864
  C          -0.11513720837486      1.09324204720158     -0.18880628022731
  C          -1.44338623125046      0.64686943248268      0.27432111760300
  C          -2.03111994867073     -0.65126635517075     -0.02844090403887
  O          -1.50524859470237     -0.37386745336733      1.25472147717584
  H           3.06869371982390     -0.14109983270899      0.44644312763081
  H           3.01313402316138      0.02565332530892     -1.39175819556997
  H           0.75709323013475     -0.94909741783049     -1.41136063216071
  H           0.80237143562033     -1.12343878675657      0.42292427368040
  H          -0.07047515471360      1.51159652924917     -1.18698167787096
  H           0.48979191398372      1.61173782387118      0.54436757854031
  H          -2.14789997454969      1.45648450003230      0.47081372054096
  H          -1.46960896792337     -1.37202984303394     -0.61074163556473
  H          -3.10965709465957     -0.75442340852765     -0.07160546529568
