15
Coordinates from ORCA-job scan E -49.834205300415
  C           2.46664498973476     -0.17807904717036     -0.50212881011166
  C           1.07518747289619     -0.57015205252369     -0.42610099909595
  C           0.01790497003872      0.93982773582526     -0.16640850482518
  C          -1.37727545297305      0.60458556846112      0.23615740873835
  C          -2.03820146677643     -0.66268049119003     -0.03894257249470
  O          -1.55958284114376     -0.35626826260914      1.25691916914501
  H           3.04895119888068     -0.03252503579232      0.39698280148698
  H           2.91175494188696      0.11703533985538     -1.44193697523675
  H           0.69568772669061     -1.00701142196801     -1.34587422958164
  H           0.83267940483794     -1.18718263760719      0.43496803222370
  H           0.04336306036833      1.49150004984997     -1.10351955070069
  H           0.52334308046021      1.51125260513969      0.60895747627225
  H          -2.02206212479693      1.47422373532456      0.35224765346206
  H          -1.50056577810666     -1.45013051557194     -0.55300660507495
  H          -3.11783018199759     -0.69439657002332     -0.13531229420681
