15
Coordinates from ORCA-job scan E -49.850048086882
  C           2.44331220587311     -0.15248366660026     -0.51311007001754
  C           1.02818922819503     -0.51391907028279     -0.40520959109333
  C           0.05974868097133      0.88920793122389     -0.15550656189504
  C          -1.35348241255191      0.58553944332129      0.22594927219999
  C          -2.03614257413819     -0.67018985286095     -0.05016443451799
  O          -1.56980262610059     -0.36470622022664      1.25040195160332
  H           3.03459047616412      0.02644403177993      0.37425085229245
  H           2.88772274025332      0.08487743074806     -1.46944458903776
  H           0.65950684221319     -0.98702387351396     -1.31312262440502
  H           0.82700548082489     -1.15563589483480      0.45101032465599
  H           0.08595457150475      1.47654463378434     -1.07230609816089
  H           0.53783234093464      1.46660324294290      0.63481929930042
  H          -1.98080022088377      1.46883269354634      0.32702888992087
  H          -1.50891781243084     -1.47398384759959     -0.54955334853316
  H          -3.11471792082909     -0.68010798142777     -0.16204127231229
