15
Coordinates from ORCA-job scan E -49.860158391658
  C           2.38182957148527     -0.05581426821450     -0.58328868031529
  C           0.93992946224830     -0.35883056285162     -0.41770559455956
  C           0.13838945599466      0.79437166854702     -0.07271402423424
  C          -1.29897543445359      0.52108996624227      0.27855775982764
  C          -2.03529642169526     -0.67130965239386     -0.11703841784715
  O          -1.55966035966327     -0.51486043087508      1.20643506842439
  H           2.80755790684498      0.85839603082270     -0.19226295363420
  H           3.05527893115890     -0.79506026923270     -0.99241977613603
  H           0.57488356812164     -0.82826438707418     -1.33750607371426
  H           0.82360478502663     -1.13297072179029      0.35309693639983
  H           0.14016078285389      1.52617274712592     -0.88513996458418
  H           0.57613731360852      1.31185982659173      0.78619437407100
  H          -1.88555453365688      1.41666675033818      0.46571621650299
  H          -1.54539367496532     -1.44919436824906     -0.69052142231760
  H          -3.11289235290848     -0.62225332898656     -0.22840144788334
