2
Coordinates from ORCA-job calc E  -7.896197819370
  O       0.570474      0.000000      0.000000
  O      -0.570474      0.000000      0.000000
2
Coordinates from ORCA-job calc E  -7.903831687110
  O       0.597943      0.000000      0.000000
  O      -0.597943      0.000000      0.000000
2
Coordinates from ORCA-job calc E  -7.904106942670
  O       0.603502      0.000000      0.000000
  O      -0.603502      0.000000      0.000000
2
Coordinates from ORCA-job calc E  -7.904118303930
  O       0.604845      0.000000      0.000000
  O      -0.604845      0.000000      0.000000
2
Coordinates from ORCA-job calc E  -7.904118325700
  O       0.604906      0.000000      0.000000
  O      -0.604906      0.000000      0.000000
2
Coordinates from ORCA-job calc E  -7.904118325700
  O       0.604906      0.000000      0.000000
  O      -0.604906      0.000000      0.000000
