15
Coordinates from ORCA-job calc E -19.245025491970
  C          -1.85815252634421      0.97129006360643     -0.24231840696975
  C          -1.26520103586575     -0.12621147198370      0.53861667389674
  C          -0.19003156945446     -0.89668138529631     -0.24831511213630
  C           0.98826129867383     -0.00071973677098     -0.54717090812789
  C           2.10953067950689      0.11626781214371      0.38719608377828
  O           2.22377446458171     -0.59483263956453     -0.81262341060818
  H          -2.04791235694646      1.92949761828567      0.19707136116808
  H          -2.16262751876075      0.80181359715118     -1.25685178887263
  H          -2.04224007413097     -0.85714638023225      0.81265902051173
  H          -0.83889605413425      0.25598594760219      1.46875358129871
  H           0.15231968308226     -1.75955638849767      0.32559074723142
  H          -0.61218163614702     -1.25776484627455     -1.18813635495309
  H           0.75282386177118      0.86413302014900     -1.16552804332088
  H           2.67471669524540      1.03969786252120      0.44208414170685
  H           2.11581708892261     -0.48577207283938      1.28897341539690
