15
Coordinates from ORCA-job opt E -49.831312646217
  C       2.305377     -0.085068     -0.869960
  C       0.975159     -0.540028     -0.267730
  C       0.140366      0.696749     -0.067327
  C      -1.208682      0.428285      0.520937
  C      -2.090389     -0.486698     -0.306237
  O      -1.554438     -0.853257      0.923356
  H       2.383503      1.021667     -0.915261
  H       3.141287     -0.429267     -0.212361
  H       0.492146     -1.192188     -1.010228
  H       1.149738     -1.105647      0.658222
  H       0.105161      1.215729     -1.050010
  H       0.693340      1.353101      0.634097
  H      -1.716243      1.231644      1.064872
  H      -1.656787     -1.052447     -1.157315
  H      -3.159539     -0.202576     -0.372053
15
Coordinates from ORCA-job opt E -49.846616917031
  C       2.361231     -0.090578     -0.818398
  C       1.010059     -0.515187     -0.260413
  C       0.127323      0.708683     -0.069261
  C      -1.243269      0.416487      0.484342
  C      -2.139496     -0.474747     -0.308461
  O      -1.561242     -0.877624      0.898384
  H       2.491927      0.985404     -0.959433
  H       3.212944     -0.471288     -0.244118
  H       0.544275     -1.184247     -0.990704
  H       1.153051     -1.062805      0.669493
  H       0.075554      1.228637     -1.029692
  H       0.646358      1.379495      0.626498
  H      -1.730652      1.196907      1.062165
  H      -1.746127     -1.000848     -1.174621
  H      -3.201939     -0.238290     -0.312780
15
Coordinates from ORCA-job opt E -49.854611829009
  C       2.377061     -0.094652     -0.769362
  C       1.026880     -0.489004     -0.250387
  C       0.124369      0.727020     -0.065790
  C      -1.257850      0.407138      0.448972
  C      -2.150915     -0.466089     -0.312155
  O      -1.543861     -0.899810      0.882082
  H       2.544728      0.953911     -0.994383
  H       3.242340     -0.532154     -0.286011
  H       0.561810     -1.171876     -0.967203
  H       1.137603     -1.024630      0.689265
  H       0.052936      1.255801     -1.015040
  H       0.614199      1.407725      0.632040
  H      -1.733909      1.172601      1.051752
  H      -1.778308     -0.961279     -1.198967
  H      -3.217084     -0.284704     -0.271811
15
Coordinates from ORCA-job opt E -49.858518327533
  C       2.384951     -0.089254     -0.728254
  C       1.034071     -0.458944     -0.240734
  C       0.126093      0.750989     -0.048354
  C      -1.269077      0.410776      0.418800
  C      -2.146087     -0.475058     -0.315369
  O      -1.530897     -0.898955      0.889498
  H       2.582870      0.935556     -1.021142
  H       3.253875     -0.622198     -0.364144
  H       0.561258     -1.147658     -0.948746
  H       1.109549     -1.002391      0.700475
  H       0.046615      1.302422     -0.987000
  H       0.589675      1.429426      0.667847
  H      -1.748940      1.177802      1.019142
  H      -1.773558     -0.965935     -1.207361
  H      -3.220398     -0.346578     -0.261656
15
Coordinates from ORCA-job opt E -49.860208319676
  C       2.384596     -0.077936     -0.706836
  C       1.029727     -0.439182     -0.238273
  C       0.129647      0.768884     -0.022743
  C      -1.276603      0.426567      0.405783
  C      -2.125218     -0.500225     -0.313214
  O      -1.540290     -0.867841      0.927994
  H       2.598731      0.935946     -1.020244
  H       3.236002     -0.698001     -0.464592
  H       0.550297     -1.119454     -0.952216
  H       1.083962     -1.008052      0.691459
  H       0.059410      1.351120     -0.945264
  H       0.579237      1.427447      0.720659
  H      -1.778602      1.214784      0.960385
  H      -1.727606     -1.022997     -1.176937
  H      -3.203291     -0.391063     -0.292959
15
Coordinates from ORCA-job opt E -49.861535841447
  C       2.384891     -0.061804     -0.678867
  C       1.020790     -0.423540     -0.242624
  C       0.133664      0.782721      0.006884
  C      -1.286122      0.451864      0.388679
  C      -2.096642     -0.537934     -0.299640
  O      -1.563006     -0.805288      0.988646
  H       2.612106      0.949567     -0.986161
  H       3.195099     -0.771762     -0.602409
  H       0.545462     -1.081031     -0.981926
  H       1.052578     -1.034293      0.663273
  H       0.088086      1.408184     -0.889420
  H       0.571273      1.404202      0.789521
  H      -1.818860      1.273461      0.860451
  H      -1.663853     -1.120160     -1.106395
  H      -3.175466     -0.434190     -0.337012
15
Coordinates from ORCA-job opt E -49.862181042146
  C       2.392489     -0.049552     -0.643388
  C       1.013521     -0.417096     -0.259137
  C       0.135360      0.786425      0.020517
  C      -1.295229      0.474046      0.366197
  C      -2.081219     -0.570992     -0.273242
  O      -1.585067     -0.735690      1.044178
  H       2.632637      0.967880     -0.918013
  H       3.157811     -0.808445     -0.712112
  H       0.559491     -1.039581     -1.040936
  H       1.019452     -1.071402      0.617547
  H       0.118476      1.450136     -0.848882
  H       0.566477      1.368780      0.837238
  H      -1.847864      1.324908      0.756640
  H      -1.628377     -1.213480     -1.019952
  H      -3.157959     -0.465938     -0.353653
15
Coordinates from ORCA-job opt E -49.862491644968
  C       2.401597     -0.046095     -0.608666
  C       1.003932     -0.414396     -0.289624
  C       0.133686      0.787554      0.017860
  C      -1.302346      0.490384      0.346071
  C      -2.074683     -0.597099     -0.239105
  O      -1.597564     -0.674137      1.090876
  H       2.663318      0.978411     -0.834626
  H       3.139191     -0.819857     -0.766261
  H       0.578219     -0.989604     -1.121407
  H       0.977744     -1.110119      0.554343
  H       0.139178      1.479185     -0.829053
  H       0.565828      1.336281      0.857705
  H      -1.866274      1.360977      0.671943
  H      -1.612086     -1.286842     -0.934976
  H      -3.149740     -0.494642     -0.342079
15
Coordinates from ORCA-job opt E -49.862726608296
  C       2.407077     -0.051689     -0.573289
  C       0.988062     -0.409670     -0.336810
  C       0.129170      0.792080      0.004476
  C      -1.308617      0.505515      0.326916
  C      -2.066563     -0.623625     -0.195262
  O      -1.600488     -0.611071      1.139117
  H       2.703787      0.976473     -0.731836
  H       3.131099     -0.826990     -0.781614
  H       0.595956     -0.917947     -1.226103
  H       0.918287     -1.151248      0.464133
  H       0.152042      1.508589     -0.820245
  H       0.568102      1.306447      0.862792
  H      -1.883508      1.389356      0.592446
  H      -1.593312     -1.353590     -0.840413
  H      -3.141094     -0.532631     -0.311307
15
Coordinates from ORCA-job opt E -49.862863746608
  C       2.404938     -0.061942     -0.555468
  C       0.973323     -0.403121     -0.375769
  C       0.124927      0.800353     -0.010114
  C      -1.311283      0.514253      0.317317
  C      -2.056539     -0.640163     -0.165135
  O      -1.591143     -0.576448      1.168210
  H       2.732240      0.963748     -0.662669
  H       3.130091     -0.837959     -0.757661
  H       0.600366     -0.859457     -1.300624
  H       0.869552     -1.173309      0.393498
  H       0.151617      1.529417     -0.823007
  H       0.571473      1.295172      0.855705
  H      -1.894592      1.400481      0.554616
  H      -1.572895     -1.385457     -0.784573
  H      -3.132076     -0.565569     -0.281323
15
Coordinates from ORCA-job opt E -49.862932827001
  C       2.401230     -0.069794     -0.552043
  C       0.965371     -0.397728     -0.396871
  C       0.123527      0.807770     -0.019259
  C      -1.310939      0.517816      0.314654
  C      -2.048721     -0.647179     -0.152523
  O      -1.579033     -0.566842      1.179757
  H       2.744344      0.952843     -0.634138
  H       3.129753     -0.849398     -0.724976
  H       0.595287     -0.829021     -1.335088
  H       0.842549     -1.179926      0.357346
  H       0.145186      1.540763     -0.828723
  H       0.573860      1.296862      0.847618
  H      -1.898417      1.402251      0.547857
  H      -1.558434     -1.392592     -0.766862
  H      -3.125564     -0.585824     -0.263747
15
Coordinates from ORCA-job opt E -49.862962216883
  C       2.400411     -0.073036     -0.552626
  C       0.963495     -0.394813     -0.406017
  C       0.124253      0.810745     -0.022304
  C      -1.310176      0.519344      0.313054
  C      -2.045271     -0.650076     -0.147529
  O      -1.574031     -0.563004      1.184647
  H       2.746992      0.949076     -0.624582
  H       3.129196     -0.855783     -0.708558
  H       0.591206     -0.816984     -1.347832
  H       0.831762     -1.182660      0.341072
  H       0.141555      1.546571     -0.829534
  H       0.574221      1.297710      0.845871
  H      -1.898787      1.403434      0.544535
  H      -1.552236     -1.395737     -0.759476
  H      -3.122591     -0.594788     -0.257720
15
Coordinates from ORCA-job opt E -49.862976832695
  C       2.400963     -0.073950     -0.553961
  C       0.963340     -0.393197     -0.411506
  C       0.125421      0.811279     -0.022851
  C      -1.309760      0.520566      0.311040
  C      -2.043676     -0.652107     -0.143759
  O      -1.573684     -0.558008      1.188447
  H       2.746613      0.948899     -0.618703
  H       3.128552     -0.859153     -0.702445
  H       0.589186     -0.810672     -1.354912
  H       0.827110     -1.185491      0.330361
  H       0.141045      1.550704     -0.826987
  H       0.573752      1.295274      0.847850
  H      -1.898721      1.405588      0.537946
  H      -1.549217     -1.400535     -0.751287
  H      -3.120926     -0.599200     -0.256230
15
Coordinates from ORCA-job opt E -49.862977957978
  C       2.401538     -0.073072     -0.556626
  C       0.964015     -0.393256     -0.411860
  C       0.126187      0.810364     -0.021826
  C      -1.309679      0.520834      0.310089
  C      -2.043943     -0.652275     -0.143190
  O      -1.575520     -0.556031      1.188959
  H       2.744454      0.950807     -0.618799
  H       3.128473     -0.859134     -0.703263
  H       0.588297     -0.811832     -1.354197
  H       0.829305     -1.186249      0.329662
  H       0.142498      1.551608     -0.824319
  H       0.573269      1.292663      0.850506
  H      -1.898289      1.406704      0.534565
  H      -1.549642     -1.402525     -0.748688
  H      -3.120963     -0.598605     -0.258010
15
Coordinates from ORCA-job opt E -49.862984587434
  C       2.401632     -0.072473     -0.558190
  C       0.963941     -0.393282     -0.413158
  C       0.126471      0.809664     -0.021265
  C      -1.309973      0.521396      0.308501
  C      -2.043925     -0.653167     -0.141427
  O      -1.577613     -0.552049      1.190577
  H       2.743695      0.951962     -0.614281
  H       3.127693     -0.858826     -0.706993
  H       0.588621     -0.811060     -1.355970
  H       0.830395     -1.187441      0.327356
  H       0.144981      1.553069     -0.821673
  H       0.573017      1.289149      0.852945
  H      -1.898799      1.408225      0.528633
  H      -1.549447     -1.406111     -0.743422
  H      -3.120690     -0.599058     -0.258631
15
Coordinates from ORCA-job opt E -49.862981530130
  C       2.401363     -0.071778     -0.560871
  C       0.964093     -0.393782     -0.412091
  C       0.126519      0.809177     -0.020684
  C      -1.310138      0.521358      0.308047
  C      -2.044349     -0.652898     -0.141974
  O      -1.578687     -0.551728      1.189976
  H       2.742946      0.953009     -0.612807
  H       3.127468     -0.857887     -0.710673
  H       0.587859     -0.813876     -1.353439
  H       0.833536     -1.186599      0.330398
  H       0.146595      1.552802     -0.820803
  H       0.572965      1.288036      0.853937
  H      -1.898870      1.408411      0.527644
  H      -1.550281     -1.406233     -0.743846
  H      -3.121018     -0.598012     -0.259812
15
Coordinates from ORCA-job opt E -49.862990235432
  C       2.400906     -0.071482     -0.563150
  C       0.963981     -0.394050     -0.411848
  C       0.126413      0.809033     -0.020652
  C      -1.310444      0.521590      0.307008
  C      -2.044462     -0.653208     -0.141711
  O      -1.579590     -0.550155      1.190281
  H       2.743669      0.953279     -0.606124
  H       3.126634     -0.857072     -0.717237
  H       0.587273     -0.815526     -1.352285
  H       0.835473     -1.185760      0.332216
  H       0.148282      1.553035     -0.820348
  H       0.572893      1.287020      0.854444
  H      -1.899416      1.408923      0.524931
  H      -1.550536     -1.407478     -0.742485
  H      -3.121077     -0.598150     -0.260037
15
Coordinates from ORCA-job opt E -49.862989604707
  C       2.400313     -0.071613     -0.565300
  C       0.963554     -0.394030     -0.412704
  C       0.126144      0.809306     -0.021602
  C      -1.310827      0.522198      0.305260
  C      -2.044117     -0.654145     -0.140413
  O      -1.579995     -0.547121      1.191594
  H       2.746253      0.952623     -0.591169
  H       3.124988     -0.856417     -0.728110
  H       0.586528     -0.816298     -1.352527
  H       0.835932     -1.184826      0.332623
  H       0.149651      1.553654     -0.820890
  H       0.572714      1.286501      0.853896
  H      -1.900383      1.409841      0.520382
  H      -1.550027     -1.410013     -0.739011
  H      -3.120730     -0.599659     -0.259025
15
Coordinates from ORCA-job opt E -49.862993758528
  C       2.399366     -0.071649     -0.569385
  C       0.963235     -0.394182     -0.413051
  C       0.125709      0.809832     -0.023964
  C      -1.311253      0.523118      0.302597
  C      -2.043667     -0.655270     -0.138966
  O      -1.580021     -0.543249      1.193032
  H       2.751370      0.950736     -0.560002
  H       3.121605     -0.854319     -0.752213
  H       0.584760     -0.820495     -1.350203
  H       0.837440     -1.182003      0.336126
  H       0.150641      1.553289     -0.824019
  H       0.572304      1.287849      0.851107
  H      -1.901553      1.411054      0.514413
  H      -1.549602     -1.413151     -0.734994
  H      -3.120335     -0.601562     -0.257475
15
Coordinates from ORCA-job opt E -49.862999961411
  C       2.398768     -0.071772     -0.572230
  C       0.963011     -0.394066     -0.414272
  C       0.125128      0.810625     -0.028030
  C      -1.311539      0.524179      0.299919
  C      -2.043195     -0.656585     -0.136647
  O      -1.578871     -0.539149      1.194920
  H       2.758187      0.946674     -0.519656
  H       3.117534     -0.851316     -0.780582
  H       0.583897     -0.824568     -1.348940
  H       0.837338     -1.179105      0.338384
  H       0.149689      1.552131     -0.829905
  H       0.571835      1.291153      0.845664
  H      -1.902538      1.412337      0.508778
  H      -1.549216     -1.416506     -0.730115
  H      -3.120030     -0.604034     -0.254286
15
Coordinates from ORCA-job opt E -49.863008713927
  C       2.398671     -0.072169     -0.572782
  C       0.962881     -0.393667     -0.416165
  C       0.124495      0.811700     -0.033576
  C      -1.311400      0.525123      0.298292
  C      -2.042636     -0.657600     -0.134049
  O      -1.575984     -0.536500      1.196669
  H       2.765304      0.940528     -0.476882
  H       3.113662     -0.847828     -0.807284
  H       0.584093     -0.827938     -1.348919
  H       0.834893     -1.176571      0.338962
  H       0.145698      1.549764     -0.838734
  H       0.571562      1.297033      0.837327
  H      -1.902801      1.413190      0.506174
  H      -1.548691     -1.418533     -0.726256
  H      -3.119749     -0.606532     -0.249776
15
Coordinates from ORCA-job opt E -49.863018267874
  C       2.398984     -0.072492     -0.572128
  C       0.962850     -0.393200     -0.418255
  C       0.123815      0.812740     -0.039780
  C      -1.311064      0.525933      0.297230
  C      -2.042301     -0.658385     -0.131197
  O      -1.572494     -0.534380      1.198205
  H       2.771802      0.932949     -0.433463
  H       3.109874     -0.843475     -0.833142
  H       0.585600     -0.831111     -1.349620
  H       0.831904     -1.174324      0.338831
  H       0.140378      1.546691     -0.848819
  H       0.571405      1.303764      0.827711
  H      -1.902589      1.413928      0.504936
  H      -1.548455     -1.419911     -0.722761
  H      -3.119710     -0.608729     -0.244748
15
Coordinates from ORCA-job opt E -49.863033213322
  C       2.399236     -0.072367     -0.571903
  C       0.962599     -0.392322     -0.421667
  C       0.122583      0.814328     -0.048757
  C      -1.310829      0.527246      0.295204
  C      -2.041762     -0.659833     -0.126475
  O      -1.567918     -0.530063      1.200880
  H       2.781474      0.918394     -0.368592
  H       3.103844     -0.834935     -0.871809
  H       0.588094     -0.835143     -1.351323
  H       0.828335     -1.170862      0.338348
  H       0.133402      1.542757     -0.862829
  H       0.571122      1.312657      0.814136
  H      -1.902746      1.415296      0.501368
  H      -1.547880     -1.422737     -0.716281
  H      -3.119555     -0.612417     -0.237297
15
Coordinates from ORCA-job opt E -49.863060287550
  C       2.398874     -0.070796     -0.573996
  C       0.962294     -0.390524     -0.425307
  C       0.120593      0.817003     -0.059975
  C      -1.311112      0.529327      0.291294
  C      -2.040486     -0.662299     -0.120583
  O      -1.562754     -0.523058      1.204604
  H       2.797114      0.890214     -0.279310
  H       3.093929     -0.818311     -0.929182
  H       0.589690     -0.841576     -1.351037
  H       0.825634     -1.164113      0.340519
  H       0.125714      1.538598     -0.880131
  H       0.569804      1.324247      0.797448
  H      -1.904382      1.417265      0.493811
  H      -1.546191     -1.427707     -0.706804
  H      -3.118721     -0.618271     -0.228349
15
Coordinates from ORCA-job opt E -49.863099182811
  C       2.398299     -0.066523     -0.576242
  C       0.961912     -0.386431     -0.431148
  C       0.117040      0.821930     -0.076745
  C      -1.312095      0.532808      0.284724
  C      -2.037867     -0.666711     -0.111033
  O      -1.555047     -0.511052      1.210843
  H       2.822592      0.830607     -0.147089
  H       3.077699     -0.783936     -1.014442
  H       0.592790     -0.848934     -1.351439
  H       0.821294     -1.152871      0.342893
  H       0.113944      1.533715     -0.905394
  H       0.566649      1.342122      0.772819
  H      -1.908280      1.420261      0.480367
  H      -1.542183     -1.436302     -0.690588
  H      -3.116748     -0.628684     -0.214523
15
Coordinates from ORCA-job opt E -49.863100069354
  C       2.393872     -0.056766     -0.584231
  C       0.956495     -0.377021     -0.448670
  C       0.108256      0.833581     -0.097537
  C      -1.318204      0.540197      0.267859
  C      -2.029525     -0.679702     -0.086846
  O      -1.550710     -0.472881      1.228501
  H       2.854005      0.698401      0.040520
  H       3.052351     -0.719489     -1.128241
  H       0.601164     -0.835598     -1.373308
  H       0.818269     -1.135551      0.333910
  H       0.111173      1.542887     -0.927483
  H       0.561891      1.354599      0.749066
  H      -1.924986      1.427029      0.432081
  H      -1.525468     -1.462510     -0.640870
  H      -3.108585     -0.657177     -0.191746
15
Coordinates from ORCA-job opt E -49.863122899175
  C       2.395094     -0.066687     -0.582494
  C       0.957472     -0.387038     -0.437984
  C       0.113761      0.824426     -0.078596
  C      -1.315401      0.534704      0.277576
  C      -2.036158     -0.671935     -0.101218
  O      -1.559772     -0.492399      1.218473
  H       2.821655      0.804155     -0.101537
  H       3.073313     -0.770213     -1.044290
  H       0.596809     -0.837513     -1.366241
  H       0.826748     -1.149443      0.339726
  H       0.125138      1.541390     -0.901926
  H       0.568754      1.333973      0.774145
  H      -1.915297      1.423824      0.454907
  H      -1.537481     -1.448899     -0.668170
  H      -3.114637     -0.638345     -0.209370
15
Coordinates from ORCA-job opt E -49.863086327467
  C       2.401208     -0.064667     -0.569180
  C       0.965124     -0.389277     -0.423180
  C       0.116279      0.820657     -0.086696
  C      -1.310445      0.531828      0.285254
  C      -2.041620     -0.663870     -0.112530
  O      -1.550752     -0.515238      1.207328
  H       2.832650      0.796464     -0.079830
  H       3.068883     -0.744245     -1.079019
  H       0.598654     -0.869863     -1.335431
  H       0.825086     -1.143321      0.363638
  H       0.102730      1.517639     -0.927803
  H       0.566266      1.358967      0.751679
  H      -1.903090      1.420223      0.487381
  H      -1.549982     -1.431688     -0.697925
  H      -3.120992     -0.623610     -0.210683
15
Coordinates from ORCA-job opt E -49.863153103990
  C       2.397000     -0.063729     -0.578521
  C       0.959879     -0.386097     -0.434932
  C       0.113256      0.825253     -0.087218
  C      -1.314125      0.535036      0.278036
  C      -2.036726     -0.670768     -0.101666
  O      -1.553933     -0.495903      1.216916
  H       2.833450      0.773606     -0.050713
  H       3.066201     -0.745528     -1.083649
  H       0.598319     -0.850338     -1.355939
  H       0.824730     -1.142904      0.348965
  H       0.113205      1.531929     -0.919716
  H       0.566698      1.349188      0.757867
  H      -1.912782      1.423676      0.461341
  H      -1.539486     -1.445854     -0.672518
  H      -3.115687     -0.637569     -0.205252
15
Coordinates from ORCA-job opt E -49.863154498445
  C       2.396867     -0.063218     -0.578620
  C       0.959699     -0.385855     -0.435750
  C       0.112922      0.825722     -0.088689
  C      -1.314291      0.535460      0.277071
  C      -2.036351     -0.671365     -0.100303
  O      -1.553565     -0.493760      1.217885
  H       2.834871      0.765386     -0.038428
  H       3.064805     -0.740270     -1.091692
  H       0.598679     -0.850201     -1.356770
  H       0.824419     -1.141919      0.348886
  H       0.112823      1.531845     -0.921620
  H       0.566512      1.350201      0.755996
  H      -1.913292      1.424207      0.458756
  H      -1.538769     -1.447270     -0.669743
  H      -3.115329     -0.638964     -0.203977
15
Coordinates from ORCA-job opt E -49.863156929433
  C       2.396892     -0.063193     -0.578410
  C       0.959732     -0.386168     -0.435649
  C       0.112958      0.825629     -0.089103
  C      -1.314223      0.535524      0.276883
  C      -2.036410     -0.671334     -0.100111
  O      -1.553526     -0.493371      1.217988
  H       2.834687      0.763450     -0.035035
  H       3.064657     -0.737924     -1.094708
  H       0.598669     -0.850713     -1.356503
  H       0.824479     -1.141676      0.349507
  H       0.112849      1.531326     -0.922378
  H       0.566610      1.350481      0.755322
  H      -1.913097      1.424409      0.458330
  H      -1.538891     -1.447457     -0.669319
  H      -3.115387     -0.638982     -0.203813
15
Coordinates from ORCA-job opt E -49.863153846684
  C       2.396901     -0.063305     -0.578153
  C       0.959718     -0.386397     -0.435669
  C       0.113002      0.825591     -0.089355
  C      -1.314198      0.535644      0.276691
  C      -2.036336     -0.671368     -0.099886
  O      -1.553545     -0.492893      1.218194
  H       2.834573      0.762033     -0.032688
  H       3.064612     -0.736219     -1.096855
  H       0.598538     -0.850888     -1.356481
  H       0.824254     -1.141659      0.349680
  H       0.112961      1.531100     -0.922792
  H       0.566617      1.350584      0.754998
  H      -1.913061      1.424619      0.457768
  H      -1.538738     -1.447716     -0.668724
  H      -3.115299     -0.639127     -0.203724
