6
-6.2712605831 converged=true
C  0.65764082583112626335 -0.02214539378870322012 -0.01114846069859846620
C  -0.65779015319592781808 0.02214604165965818050 0.01115246280348494365
H  1.20413231639639795034 -0.90791439667294981941 0.26892547295407309704
H  1.25285758790020529396 0.82503894992524906549 -0.31053055726795958380
H  -1.20404356820622981949 0.90802856448052116090 -0.26896604367409793213
H  -1.25279600872557184132 -0.82515376560377573512 0.31056712588309759449
