6
-6.2712604976 converged=true
C  0.65756894693744794012 -0.02208596463473879584 -0.01116627894027891719
C  -0.65786916400346462375 0.02208738540544092840 0.01117427611832554936
H  1.20411882100709188848 -0.90784608759359486374 0.26890308922923117363
H  1.25292230147025995812 0.82500373522660164216 -0.31052064633106690739
H  -1.20394126813357060790 0.90807608478310519740 -0.26898476688417355396
H  -1.25279863727776419324 -0.82523515318681439634 0.31059432680796233983
