15
Coordinates from ORCA-job scan E -49.823449257649
  C           2.47985203774032     -0.19761173697558     -0.49385848544328
  C           1.10990553153568     -0.60744637108750     -0.44261821570820
  C          -0.01043520663968      0.97518342361101     -0.17302826197205
  C          -1.39187771789304      0.61695241902125      0.24531904862242
  C          -2.03830704247548     -0.65716518111401     -0.03259710876370
  O          -1.54870813357560     -0.35479586293673      1.26005124516734
  H           3.05129872076783     -0.06238761387474      0.41375264764219
  H           2.93415287520875      0.11510866519696     -1.42351857320812
  H           0.71758731292482     -1.01006252581567     -1.37126093359676
  H           0.83032421552282     -1.20188257359336      0.42158809395020
  H           0.01370229333043      1.50306246875467     -1.12283763884887
  H           0.51487114468790      1.54016855729732      0.59247877101277
  H          -2.04882290244832      1.47594100466938      0.37654156426688
  H          -1.49511150868765     -1.43153329259428     -0.56055712184493
  H          -3.11843261999878     -0.70353238055874     -0.11645303127588
