15
Coordinates from ORCA-job scan E -49.806522071168
  C           2.53159516135296     -0.28527551901239     -0.48189032740022
  C           1.26278189037794     -0.72238304995186     -0.48051090218533
  C          -0.13546027579018      1.11345452194790     -0.18186314562144
  C          -1.45950743297573      0.65497486297444      0.27596910858124
  C          -2.03109987940748     -0.65093618451815     -0.02632624719817
  O          -1.51274980767562     -0.36500618737310      1.25781040480572
  H           3.08543680046335     -0.16376973603229      0.43985124705547
  H           3.02873036179137      0.00629733470116     -1.39769589542073
  H           0.76117640201378     -0.93344893153984     -1.41527178646862
  H           0.80708312380254     -1.10935937604024      0.42097245884715
  H          -0.07784433209407      1.52211804977927     -1.18271356153904
  H           0.48234671518387      1.60945415685054      0.55519323939303
  H          -2.17504691539705      1.45617523193741      0.46796050522105
  H          -1.45919847420509     -1.36591513206783     -0.60559194644813
  H          -3.10824433744063     -0.76638104165504     -0.07289115162195
