15
Coordinates from ORCA-job scan E -49.817472151300
  C           2.48613430378214     -0.21047383171843     -0.48826396814374
  C           1.13383776821463     -0.63025070274841     -0.45210150531267
  C          -0.02849688441301      0.99794549773570     -0.17778745526687
  C          -1.40014060023499      0.62353484066117      0.25116829538940
  C          -2.03660645367824     -0.65508849148189     -0.02958887071686
  O          -1.53917864664230     -0.35649809872036      1.26087245897033
  H           3.05012113226260     -0.07745993580714      0.42440634279770
  H           2.94821410076219      0.10700299022643     -1.41254147341832
  H           0.72897852664469     -1.00667829880996     -1.38530333450792
  H           0.82543944048549     -1.20246818330729      0.41619227405609
  H          -0.00522499124190      1.50863946795279     -1.13626668509220
  H           0.50964519575696      1.55898587289143      0.58067900309220
  H          -2.06565630469666      1.47451656199410      0.39393081641480
  H          -1.49018454401565     -1.42019315522230     -0.56766097358181
  H          -3.11688304298597     -0.71151553364585     -0.10473292468009
