15
Coordinates from ORCA-job scan E -49.844555152457
  C           2.45263320964500     -0.16212626855730     -0.50876879717638
  C           1.04495746894240     -0.53460713770032     -0.41278597570098
  C           0.04472373369762      0.90740455328746     -0.15992922777061
  C          -1.36197464594716      0.59310532602338      0.23023772737982
  C          -2.03800556115809     -0.66607977974561     -0.04608641627448
  O          -1.56605391220371     -0.36176816206779      1.25273185726233
  H           3.04341352947174     -0.00540622182754      0.38297192317268
  H           2.89589997539366      0.10347139397142     -1.45816671988024
  H           0.67266695534927     -0.99443333772789     -1.32547339202009
  H           0.82845607584687     -1.16852096230769      0.44447293250630
  H           0.07037698849765      1.48073212041538     -1.08495546691790
  H           0.53317666156060      1.48348520002197      0.62416784712930
  H          -1.99516381945267      1.47168468747139      0.33791607805145
  H          -1.50798460461084     -1.46421296399942     -0.55163926899617
  H          -3.11712305503235     -0.68272944725746     -0.15169110076503
