15
Coordinates from ORCA-job scan E -49.806293695922
  C           2.51547443684069     -0.26801523303568     -0.48128311962224
  C           1.23812221464264     -0.70855298342141     -0.47504241394668
  C          -0.10903537205549      1.08910387193000     -0.18252925878330
  C          -1.44233293590323      0.64703968384269      0.27088908198266
  C          -2.02976714129176     -0.65226229896106     -0.02779046920956
  O          -1.51355551551709     -0.36661626553429      1.25747451750042
  H           3.07028676881211     -0.14243187226577      0.43906764001685
  H           3.00538016221567      0.03147067938540     -1.39817055427283
  H           0.75044263489609     -0.94927007907368     -1.41022421032633
  H           0.80524038151507     -1.12980148160269      0.42261058469087
  H          -0.06083041518607      1.51880832193860     -1.17578973679177
  H           0.49103200737196      1.60311872491750      0.55787957538238
  H          -2.14733722609778      1.45912633266594      0.45517677833410
  H          -1.46498399411453     -1.37806755656240     -0.60046250013755
  H          -3.10813700612828     -0.75365084422317     -0.07880391481701
