15
Coordinates from ORCA-job scan E -49.837377503523
  C           2.46220736104138     -0.17450869310466     -0.50504370247889
  C           1.06535142489062     -0.56000292521795     -0.42227822630971
  C           0.02674528924072      0.92996086149584     -0.16320521995929
  C          -1.37243157669223      0.60158098428811      0.23440119796598
  C          -2.03832220916607     -0.66293450313308     -0.04151058581969
  O          -1.56241589663237     -0.35741480221569      1.25556197408344
  H           3.04715278773581     -0.02499653314882      0.39173108074865
  H           2.90594859300694      0.11290343982521     -1.44788795517327
  H           0.68784007123476     -1.00387909375387     -1.33984041691476
  H           0.83157653945453     -1.18267364862077      0.43759221388981
  H           0.05317746066432      1.48966360043070     -1.09580011700123
  H           0.52714046339949      1.50131187131317      0.61586551862340
  H          -2.01322154969644      1.47438667784243      0.34753046836179
  H          -1.50297218406214     -1.45373440885743     -0.55279105825463
  H          -3.11777757441933     -0.68966382714321     -0.14132317176158
