15
Coordinates from ORCA-job scan E -49.830184725043
  C           2.47206927048313     -0.18540705348996     -0.49911517473964
  C           1.08739468360949     -0.58370832120002     -0.43264906963179
  C           0.00777191402063      0.95254319275719     -0.16855557192806
  C          -1.38259265282161      0.60949849202469      0.23992133657837
  C          -2.03897813714350     -0.65982756275370     -0.03656337933820
  O          -1.55597295011515     -0.35565890178858      1.25818340641215
  H           3.05087014746718     -0.04606783505650      0.40319297649721
  H           2.92083766418150      0.11682034189347     -1.43488330615101
  H           0.70379837800796     -1.00807257083338     -1.35611780229942
  H           0.83164646691814     -1.19425138997995      0.42867235147348
  H           0.03271100926327      1.49599735481710     -1.11012266246277
  H           0.52053583891004      1.52148539878539      0.60333827554160
  H          -2.03142547612002      1.47552613054980      0.36194267644556
  H          -1.49979967066126     -1.44271539583465     -0.55601346855603
  H          -3.11886748599983     -0.69616287989093     -0.12822858784143
