15
Coordinates from ORCA-job scan E -49.808340335973
  C           2.57149501365503     -0.31646607677636     -0.48096646083790
  C           1.31197594151790     -0.74844399693041     -0.49288981867869
  C          -0.19267684954279      1.16017642491955     -0.18355456082509
  C          -1.49786337641436      0.67333776376498      0.28868632715047
  C          -2.04145812171321     -0.64303829202985     -0.02205498972665
  O          -1.51239409428216     -0.36095263806706      1.25812395396398
  H           3.11800003346043     -0.19847872646284      0.44597271847081
  H           3.08404738925969     -0.03821427092497     -1.39275681876077
  H           0.80037930797179     -0.92147104677547     -1.43011084953074
  H           0.82189858386258     -1.08569166776560      0.41033662203945
  H          -0.12127897033468      1.52691332099373     -1.19844733982922
  H           0.46294492571488      1.61817839247217      0.54359175309034
  H          -2.22994407835332      1.45396906607229      0.50202518043861
  H          -1.45923964327690     -1.33464092506828     -0.61942937071833
  H          -3.11588706152491     -0.78517832742188     -0.05552434624625
