9
Coordinates from ORCA-job opt E -36.048683468305
  C          -1.32242399016465     -0.30962371312908      0.15692594985715
  C          -0.09880667571939      0.46085621888904      0.18982378911626
  C           1.19757658090279     -0.12008873815832     -0.18759524542305
  O           0.52725275547878      0.74143493711151     -1.06882489647970
  H          -2.11267626420914     -0.12130618271052      0.86674766342659
  H          -1.45927318993903     -1.06681151573300     -0.60144817184493
  H          -0.07317777836628      1.29894562439408      0.87788341461583
  H           1.23842833394148     -1.16012450565473     -0.49320691323464
  H           2.10309922807544      0.27671787499102      0.25969240996648
